 CRYSTAL
 PRIMVEC
4.7625949 .0000000 .0000000
.0000000 4.7625949 .0000000
.0000000 .0000000 4.7625949
 PRIMCOORD
           8  1
  25  1.8383616 1.8383616 1.8383616
  25  .5429358 -1.8383616 -.5429358
  25  -1.8383616 -.5429358 .5429358
  25  -.5429358 .5429358 -1.8383616
  32  .4572091 .4572091 .4572091
  32  1.9240883 -.4572091 -1.9240883
  32  -.4572091 -1.9240883 1.9240883
  32  -1.9240883 1.9240883 -.4572091
 
